*version 9.2 468484561
u 1496
R? 96
U? 36
V? 9
? 12
PM? 2
@libraries
@analysis
.DC 0 0 0 4 1 1
+ 0 0 dR
+ 0 4 0
+ 0 5 20
+ 0 6 0.001
.TRAN 1 0 0 0
+0 0ns
+1 0.1ms
+3 1us
.MC 1 2 3 1 0 2 0 1 1 0
+0 500
+1 V(U35:OUT)
@targets
@attributes
@translators
a 0 u 13 0 0 0 hln 100 PCBOARDS=PCB
a 0 u 13 0 0 0 hln 100 PSPICE=PSPICE
a 0 u 13 0 0 0 hln 100 XILINX=XILINX
@setup
unconnectedPins 0
connectViaLabel 0
connectViaLocalLabels 0
NoStim4ExtIFPortsWarnings 1
AutoGenStim4ExtIFPorts 1
@index
pageloc 1 0 54695 
@status
n 0 122:09:10:14:06:31;1665399991 e 
s 0 122:09:10:14:07:03;1665400023 e 
*page 1 0 2020 1520 iD
@ports
port 151 AGND 90 100 h
port 152 +5V 40 160 u
a 1 x 3 0 0 0 hcn 100 LABEL=v-
port 153 +5V 40 40 h
a 1 x 3 0 0 0 hcn 100 LABEL=v+
port 150 AGND 200 140 d
port 165 +5V 150 100 v
a 1 x 3 0 0 0 hcn 100 LABEL=vout
port 149 AGND 430 220 h
port 162 +5V 420 70 h
a 1 x 3 0 0 0 hcn 100 LABEL=vout
port 164 AGND 360 70 d
port 155 AGND 710 140 d
port 156 +5V 620 100 v
a 1 x 3 0 0 0 hcn 100 LABEL=vout
port 159 +5V 770 150 U
a 1 x 3 0 0 0 hcn 100 LABEL=v+
port 160 +5V 770 90 H
a 1 x 3 0 0 0 hcn 100 LABEL=v-
port 154 AGND 900 210 h
port 157 +5V 960 110 u
a 1 x 3 0 0 0 hcn 100 LABEL=v-
port 161 +5V 880 60 v
a 1 x 3 0 0 0 hcn 100 LABEL=vout
port 158 +5V 960 50 h
a 1 x 3 0 0 0 hcn 100 LABEL=v+
port 166 AGND 1290 440 h
port 167 AGND 960 310 d
port 168 +5V 870 270 v
a 1 x 3 0 0 0 hcn 100 LABEL=vout
port 169 +5V 1270 290 v
a 1 x 3 0 0 0 hcn 100 LABEL=vout
port 170 +5V 1350 340 u
a 1 x 3 0 0 0 hcn 100 LABEL=v-
port 171 +5V 1350 280 h
a 1 x 3 0 0 0 hcn 100 LABEL=v+
port 172 +5V 1020 320 U
a 1 x 3 0 0 0 hcn 100 LABEL=v+
port 173 +5V 1020 260 H
a 1 x 3 0 0 0 hcn 100 LABEL=v-
port 312 +5V 90 350 v
a 1 x 3 0 0 0 hcn 100 LABEL=vin+
port 313 +5V 90 420 v
a 1 x 3 0 0 0 hcn 100 LABEL=vin-
port 328 AGND 100 280 u
port 327 AGND 100 490 h
port 296 AGND 270 460 h
port 297 +5V 230 340 v
a 1 x 3 0 0 0 hcn 100 LABEL=vin-
port 305 +5V 230 410 v
a 1 x 3 0 0 0 hcn 100 LABEL=vin+
port 389 AGND 550 470 h
port 391 +5V 510 420 v
a 1 x 3 0 0 0 hcn 100 LABEL=vin+
port 390 +5V 510 330 v
a 1 x 3 0 0 0 hcn 100 LABEL=vin-
port 395 +5V 600 430 U
a 1 x 3 0 0 0 hcn 100 LABEL=v+
port 396 +5V 600 370 H
a 1 x 3 0 0 0 hcn 100 LABEL=v-
port 442 AGND 390 790 h
port 444 +5V 40 850 v
a 1 x 3 0 0 0 hcn 100 LABEL=vin+
port 443 +5V 40 590 v
a 1 x 3 0 0 0 hcn 100 LABEL=vin-
port 683 AGND 1030 780 h
port 747 +5V 1310 580 v
a 1 x 3 0 0 0 hcn 100 LABEL=vin-
port 769 +5V 1550 670 v
a 1 x 3 0 0 0 hcn 100 LABEL=vin+
port 773 AGND 1370 730 h
port 1255 +5V 690 840 h
a 1 x 3 0 0 0 hcn 100 LABEL=vcm
port 1257 +5V 700 580 h
a 1 x 3 0 0 0 hcn 100 LABEL=vcm
port 816 AGND 360 1600 h
port 937 +5V 260 1300 v
a 1 x 3 0 0 0 hcn 100 LABEL=vref
port 938 +5V 810 1690 v
a 1 x 3 0 0 0 hcn 100 LABEL=vref
port 941 AGND 860 1740 h
port 1081 AGND 1260 1630 h
port 1082 +5V 1160 1330 v
a 1 x 3 0 0 0 hcn 100 LABEL=vref2
port 1167 AGND 1620 1650 H
port 1166 +5V 1670 1600 V
a 1 x 3 0 0 0 hcn 100 LABEL=vref2
port 1229 AGND 500 1970 h
port 1248 AGND 400 1990 h
port 1254 +5V 400 1890 h
a 1 x 3 0 0 0 hcn 100 LABEL=vcm
port 1419 AGND 1020 1120 h
port 1421 +5V 690 920 h
a 1 x 3 0 0 0 hcn 100 LABEL=vcm
port 1420 +5V 680 1260 h
a 1 x 3 0 0 0 hcn 100 LABEL=vcm
port 1448 AGND 700 1110 h
port 1493 AGND 1140 1940 h
port 1491 +5V 1080 1790 v
a 1 x 3 0 0 0 hcn 100 LABEL=vcm
port 1492 +5V 1320 1880 v
a 1 x 3 0 0 0 hcn 100 LABEL=vcm
@parts
part 131 VDC 40 110 h
a 0 sp 0 0 22 37 hln 100 PART=VDC
a 1 u 13 0 -11 18 hcn 100 DC=15V
a 0 a 0:13 0 0 0 hln 100 PKGREF=V1
a 1 ap 9 0 24 7 hcn 100 REFDES=V1
part 132 VDC 40 50 h
a 0 sp 0 0 22 37 hln 100 PART=VDC
a 1 u 13 0 -11 18 hcn 100 DC=15V
a 0 a 0:13 0 0 0 hln 100 PKGREF=V2
a 1 ap 9 0 24 7 hcn 100 REFDES=V2
part 139 R 160 100 h
a 0 sp 0 0 0 10 hlb 100 PART=R
a 0 s 0:13 0 0 0 hln 100 PKGTYPE=RC05
a 0 s 0:13 0 0 0 hln 100 GATE=
a 0 a 0:13 0 0 0 hln 100 PKGREF=R7
a 0 ap 9 0 15 0 hln 100 REFDES=R7
part 140 R 240 60 h
a 0 u 13 0 15 25 hln 100 VALUE=10k
a 0 sp 0 0 0 10 hlb 100 PART=R
a 0 s 0:13 0 0 0 hln 100 PKGTYPE=RC05
a 0 s 0:13 0 0 0 hln 100 GATE=
a 0 a 0:13 0 0 0 hln 100 PKGREF=R8
a 0 ap 9 0 15 0 hln 100 REFDES=R8
part 141 OPAMP 220 140 U
a 0 sp 11 0 50 60 hln 100 PART=OPAMP
a 0 s 0:13 0 0 0 hln 100 PKGTYPE=
a 0 a 0:13 0 0 0 hln 100 PKGREF=U4
a 0 ap 9 0 14 0 hln 100 REFDES=U4
part 128 R 430 200 v
a 0 sp 0 0 0 10 hlb 100 PART=R
a 0 s 0:13 0 0 0 hln 100 PKGTYPE=RC05
a 0 s 0:13 0 0 0 hln 100 GATE=
a 0 ap 9 0 15 0 hln 100 REFDES=R1
a 0 a 0:13 0 0 0 hln 100 PKGREF=R1
part 129 OPAMP 450 70 h
a 0 sp 11 0 50 60 hln 100 PART=OPAMP
a 0 s 0:13 0 0 0 hln 100 PKGTYPE=
a 0 ap 9 0 14 0 hln 100 REFDES=U1
a 0 a 0:13 0 0 0 hln 100 PKGREF=U1
part 130 R 470 150 h
a 0 u 13 0 15 25 hln 100 VALUE=9k
a 0 sp 0 0 0 10 hlb 100 PART=R
a 0 s 0:13 0 0 0 hln 100 PKGTYPE=RC05
a 0 s 0:13 0 0 0 hln 100 GATE=
a 0 ap 9 0 15 0 hln 100 REFDES=R2
a 0 a 0:13 0 0 0 hln 100 PKGREF=R2
part 142 VSIN 410 70 d
a 1 ap 9 0 20 10 hcn 100 REFDES=V3
a 1 u 0 0 0 0 hcn 100 DC=0
a 1 u 0 0 0 0 hcn 100 AC=1
a 1 u 0 0 0 0 hcn 100 VOFF=0
a 1 u 0 0 0 0 hcn 100 VAMPL=1
a 1 u 0 0 0 0 hcn 100 FREQ=1000
a 0 a 0:13 0 0 0 hln 100 PKGREF=V3
part 133 R 650 100 h
a 0 sp 0 0 0 10 hlb 100 PART=R
a 0 s 0:13 0 0 0 hln 100 PKGTYPE=RC05
a 0 s 0:13 0 0 0 hln 100 GATE=
a 0 a 0:13 0 0 0 hln 100 PKGREF=R3
a 0 ap 9 0 15 0 hln 100 REFDES=R3
part 135 LT1077/LT 730 140 U
a 0 sp 11 0 34 72 hln 100 PART=LT1077/LT
a 0 s 0:13 0 0 0 hln 100 PKGTYPE=CDIP8
a 0 s 0:13 0 0 0 hln 100 GATE=
a 0 a 0:13 0 0 0 hln 100 PKGREF=U3
a 0 ap 9 0 12 -2 hln 100 REFDES=U3
part 136 R 750 50 h
a 0 u 13 0 15 25 hln 100 VALUE=10k
a 0 sp 0 0 0 10 hlb 100 PART=R
a 0 s 0:13 0 0 0 hln 100 PKGTYPE=RC05
a 0 s 0:13 0 0 0 hln 100 GATE=
a 0 a 0:13 0 0 0 hln 100 PKGREF=R4
a 0 ap 9 0 15 0 hln 100 REFDES=R4
part 137 R 940 150 h
a 0 u 13 0 15 25 hln 100 VALUE=9k
a 0 sp 0 0 0 10 hlb 100 PART=R
a 0 s 0:13 0 0 0 hln 100 PKGTYPE=RC05
a 0 s 0:13 0 0 0 hln 100 GATE=
a 0 a 0:13 0 0 0 hln 100 PKGREF=R5
a 0 ap 9 0 15 0 hln 100 REFDES=R5
part 138 R 900 190 v
a 0 sp 0 0 0 10 hlb 100 PART=R
a 0 s 0:13 0 0 0 hln 100 PKGTYPE=RC05
a 0 s 0:13 0 0 0 hln 100 GATE=
a 0 ap 9 0 15 0 hln 100 REFDES=R6
a 0 a 0:13 0 0 0 hln 100 PKGREF=R6
part 134 LT1077/LT 920 60 h
a 0 sp 11 0 -16 70 hln 100 PART=LT1077/LT
a 0 s 0:13 0 0 0 hln 100 PKGTYPE=CDIP8
a 0 s 0:13 0 0 0 hln 100 GATE=
a 0 a 0:13 0 0 0 hln 100 PKGREF=U2
a 0 ap 9 0 12 -2 hln 100 REFDES=U2
part 143 R 900 270 h
a 0 sp 0 0 0 10 hlb 100 PART=R
a 0 s 0:13 0 0 0 hln 100 PKGTYPE=RC05
a 0 s 0:13 0 0 0 hln 100 GATE=
a 0 a 0:13 0 0 0 hln 100 PKGREF=R9
a 0 ap 9 0 15 0 hln 100 REFDES=R9
part 144 R 1000 220 h
a 0 u 13 0 15 25 hln 100 VALUE=10k
a 0 sp 0 0 0 10 hlb 100 PART=R
a 0 s 0:13 0 0 0 hln 100 PKGTYPE=RC05
a 0 s 0:13 0 0 0 hln 100 GATE=
a 0 a 0:13 0 0 0 hln 100 PKGREF=R10
a 0 ap 9 0 15 0 hln 100 REFDES=R10
part 145 R 1330 380 h
a 0 u 13 0 15 25 hln 100 VALUE=9k
a 0 sp 0 0 0 10 hlb 100 PART=R
a 0 s 0:13 0 0 0 hln 100 PKGTYPE=RC05
a 0 s 0:13 0 0 0 hln 100 GATE=
a 0 a 0:13 0 0 0 hln 100 PKGREF=R11
a 0 ap 9 0 15 0 hln 100 REFDES=R11
part 146 R 1290 420 v
a 0 sp 0 0 0 10 hlb 100 PART=R
a 0 s 0:13 0 0 0 hln 100 PKGTYPE=RC05
a 0 s 0:13 0 0 0 hln 100 GATE=
a 0 a 0:13 0 0 0 hln 100 PKGREF=R12
a 0 ap 9 0 15 0 hln 100 REFDES=R12
part 147 OPA37/BB 1310 290 h
a 0 sp 11 0 8 70 hcn 100 PART=OPA37/BB
a 0 s 0:13 0 0 0 hln 100 PKGTYPE=CDIP8
a 0 s 0:13 0 0 0 hln 100 GATE=
a 0 a 0:13 0 0 0 hln 100 PKGREF=U5
a 0 ap 9 0 12 -2 hln 100 REFDES=U5
part 148 OPA37/BB 980 310 U
a 0 sp 11 0 8 70 hcn 100 PART=OPA37/BB
a 0 s 0:13 0 0 0 hln 100 PKGTYPE=CDIP8
a 0 s 0:13 0 0 0 hln 100 GATE=
a 0 a 0:13 0 0 0 hln 100 PKGREF=U6
a 0 ap 9 0 12 -2 hln 100 REFDES=U6
part 314 VDC 100 370 h
a 0 sp 0 0 22 37 hln 100 PART=VDC
a 0 a 0:13 0 0 0 hln 100 PKGREF=V4
a 1 ap 9 0 24 7 hcn 100 REFDES=V4
part 325 R 100 330 v
a 0 u 13 0 15 25 hln 100 VALUE=10k
a 0 sp 0 0 0 10 hlb 100 PART=R
a 0 s 0:13 0 0 0 hln 100 PKGTYPE=RC05
a 0 s 0:13 0 0 0 hln 100 GATE=
a 0 a 0:13 0 0 0 hln 100 PKGREF=R17
a 0 ap 9 0 15 0 hln 100 REFDES=R17
part 294 R 300 340 h
a 0 u 13 0 15 25 hln 100 VALUE=10k
a 0 sp 0 0 0 10 hlb 100 PART=R
a 0 s 0:13 0 0 0 hln 100 PKGTYPE=RC05
a 0 s 0:13 0 0 0 hln 100 GATE=
a 0 a 0:13 0 0 0 hln 100 PKGREF=R14
a 0 ap 9 0 15 0 hln 100 REFDES=R14
part 337 R 270 460 v
a 0 sp 0 0 0 10 hlb 100 PART=R
a 0 s 0:13 0 0 0 hln 100 PKGTYPE=RC05
a 0 s 0:13 0 0 0 hln 100 GATE=
a 0 a 0:13 0 0 0 hln 100 PKGREF=R19
a 0 ap 9 0 15 0 hln 100 REFDES=R19
a 0 u 13 0 15 33 hln 100 VALUE=10k
part 304 R 230 410 h
a 0 sp 0 0 0 10 hlb 100 PART=R
a 0 s 0:13 0 0 0 hln 100 PKGTYPE=RC05
a 0 s 0:13 0 0 0 hln 100 GATE=
a 0 a 0:13 0 0 0 hln 100 PKGREF=R15
a 0 ap 9 0 15 0 hln 100 REFDES=R15
part 293 R 230 340 h
a 0 sp 0 0 0 10 hlb 100 PART=R
a 0 s 0:13 0 0 0 hln 100 PKGTYPE=RC05
a 0 s 0:13 0 0 0 hln 100 GATE=
a 0 a 0:13 0 0 0 hln 100 PKGREF=R13
a 0 ap 9 0 15 0 hln 100 REFDES=R13
part 326 R 100 470 v
a 0 u 13 0 15 25 hln 100 VALUE=10k
a 0 sp 0 0 0 10 hlb 100 PART=R
a 0 s 0:13 0 0 0 hln 100 PKGTYPE=RC05
a 0 s 0:13 0 0 0 hln 100 GATE=
a 0 a 0:13 0 0 0 hln 100 PKGREF=R18
a 0 ap 9 0 15 0 hln 100 REFDES=R18
part 385 R 550 470 v
a 0 sp 0 0 0 10 hlb 100 PART=R
a 0 s 0:13 0 0 0 hln 100 PKGTYPE=RC05
a 0 s 0:13 0 0 0 hln 100 GATE=
a 0 u 13 0 15 33 hln 100 VALUE=10k
a 0 a 0:13 0 0 0 hln 100 PKGREF=R21
a 0 ap 9 0 15 0 hln 100 REFDES=R21
part 386 R 510 420 h
a 0 sp 0 0 0 10 hlb 100 PART=R
a 0 s 0:13 0 0 0 hln 100 PKGTYPE=RC05
a 0 s 0:13 0 0 0 hln 100 GATE=
a 0 a 0:13 0 0 0 hln 100 PKGREF=R22
a 0 ap 9 0 15 0 hln 100 REFDES=R22
part 387 R 510 330 h
a 0 sp 0 0 0 10 hlb 100 PART=R
a 0 s 0:13 0 0 0 hln 100 PKGTYPE=RC05
a 0 s 0:13 0 0 0 hln 100 GATE=
a 0 a 0:13 0 0 0 hln 100 PKGREF=R23
a 0 ap 9 0 15 0 hln 100 REFDES=R23
part 384 R 580 330 h
a 0 u 13 0 15 25 hln 100 VALUE=10k
a 0 sp 0 0 0 10 hlb 100 PART=R
a 0 s 0:13 0 0 0 hln 100 PKGTYPE=RC05
a 0 s 0:13 0 0 0 hln 100 GATE=
a 0 a 0:13 0 0 0 hln 100 PKGREF=R20
a 0 ap 9 0 15 0 hln 100 REFDES=R20
part 422 OPA37/BB 560 420 U
a 0 sp 11 0 8 70 hcn 100 PART=OPA37/BB
a 0 s 0:13 0 0 0 hln 100 PKGTYPE=CDIP8
a 0 s 0:13 0 0 0 hln 100 GATE=
a 0 a 0:13 0 0 0 hln 100 PKGREF=U10
a 0 ap 9 0 12 -2 hln 100 REFDES=U10
part 439 R 350 740 h
a 0 sp 0 0 0 10 hlb 100 PART=R
a 0 s 0:13 0 0 0 hln 100 PKGTYPE=RC05
a 0 s 0:13 0 0 0 hln 100 GATE=
a 0 a 0:13 0 0 0 hln 100 PKGREF=R26
a 0 ap 9 0 15 0 hln 100 REFDES=R26
part 440 R 350 670 h
a 0 sp 0 0 0 10 hlb 100 PART=R
a 0 s 0:13 0 0 0 hln 100 PKGTYPE=RC05
a 0 s 0:13 0 0 0 hln 100 GATE=
a 0 a 0:13 0 0 0 hln 100 PKGREF=R27
a 0 ap 9 0 15 0 hln 100 REFDES=R27
part 552 R 130 670 h
a 0 sp 0 0 0 10 hlb 100 PART=R
a 0 s 0:13 0 0 0 hln 100 PKGTYPE=RC05
a 0 s 0:13 0 0 0 hln 100 GATE=
a 0 a 0:13 0 0 0 hln 100 PKGREF=R36
a 0 ap 9 0 15 0 hln 100 REFDES=R36
a 0 u 13 0 15 25 hln 100 VALUE=1k
part 588 OPAMP 110 850 U
a 0 u 0:13 0 20 82 hlb 100 VPOS=+150V
a 0 u 0:13 0 20 91 hlb 100 VNEG=-150V
a 0 sp 11 0 50 60 hln 100 PART=OPAMP
a 0 s 0:13 0 0 0 hln 100 PKGTYPE=
a 0 a 0:13 0 0 0 hln 100 PKGREF=U15
a 0 ap 9 0 14 0 hln 100 REFDES=U15
part 590 OPAMP 110 590 h
a 0 u 0:13 0 20 82 hlb 100 VPOS=+150V
a 0 u 0:13 0 20 91 hlb 100 VNEG=-150V
a 0 sp 11 0 50 60 hln 100 PART=OPAMP
a 0 s 0:13 0 0 0 hln 100 PKGTYPE=
a 0 a 0:13 0 0 0 hln 100 PKGREF=U16
a 0 ap 9 0 14 0 hln 100 REFDES=U16
part 556 R 100 740 v
a 0 sp 0 0 0 10 hlb 100 PART=R
a 0 s 0:13 0 0 0 hln 100 PKGTYPE=RC05
a 0 s 0:13 0 0 0 hln 100 GATE=
a 0 a 0:13 0 0 0 hln 100 PKGREF=R37
a 0 ap 9 0 17 42 hln 100 REFDES=R37
a 0 u 13 0 15 1 hln 100 VALUE=0.222222222222222222222k
part 437 R 420 670 h
a 0 sp 0 0 0 10 hlb 100 PART=R
a 0 s 0:13 0 0 0 hln 100 PKGTYPE=RC05
a 0 s 0:13 0 0 0 hln 100 GATE=
a 0 a 0:13 0 0 0 hln 100 PKGREF=R24
a 0 ap 9 0 15 0 hln 100 REFDES=R24
a 0 u 13 0 15 25 hln 100 VALUE=1k
part 438 R 390 790 v
a 0 sp 0 0 0 10 hlb 100 PART=R
a 0 s 0:13 0 0 0 hln 100 PKGTYPE=RC05
a 0 s 0:13 0 0 0 hln 100 GATE=
a 0 a 0:13 0 0 0 hln 100 PKGREF=R25
a 0 ap 9 0 15 0 hln 100 REFDES=R25
a 0 u 13 0 15 33 hln 100 VALUE=1k
part 576 R 130 770 U
a 0 sp 0 0 0 10 hlb 100 PART=R
a 0 s 0:13 0 0 0 hln 100 PKGTYPE=RC05
a 0 s 0:13 0 0 0 hln 100 GATE=
a 0 a 0:13 0 0 0 hln 100 PKGREF=R38
a 0 ap 9 0 15 0 hln 100 REFDES=R38
a 0 u 13 0 17 25 hln 100 VALUE=1k
part 677 OPAMP 750 840 U
a 0 u 0:13 0 20 82 hlb 100 VPOS=+150V
a 0 u 0:13 0 20 91 hlb 100 VNEG=-150V
a 0 sp 11 0 50 60 hln 100 PART=OPAMP
a 0 s 0:13 0 0 0 hln 100 PKGTYPE=
a 0 a 0:13 0 0 0 hln 100 PKGREF=U18
a 0 ap 9 0 14 0 hln 100 REFDES=U18
part 678 OPAMP 750 580 h
a 0 u 0:13 0 20 82 hlb 100 VPOS=+150V
a 0 u 0:13 0 20 91 hlb 100 VNEG=-150V
a 0 sp 11 0 50 60 hln 100 PART=OPAMP
a 0 s 0:13 0 0 0 hln 100 PKGTYPE=
a 0 a 0:13 0 0 0 hln 100 PKGREF=U19
a 0 ap 9 0 14 0 hln 100 REFDES=U19
part 740 OPAMP 1380 580 h
a 0 u 0:13 0 20 82 hlb 100 VPOS=+150V
a 0 u 0:13 0 20 91 hlb 100 VNEG=-150V
a 0 sp 11 0 50 60 hln 100 PART=OPAMP
a 0 s 0:13 0 0 0 hln 100 PKGTYPE=
a 0 a 0:13 0 0 0 hln 100 PKGREF=U21
a 0 ap 9 0 14 0 hln 100 REFDES=U21
part 739 R 1510 600 h
a 0 sp 0 0 0 10 hlb 100 PART=R
a 0 s 0:13 0 0 0 hln 100 PKGTYPE=RC05
a 0 s 0:13 0 0 0 hln 100 GATE=
a 0 a 0:13 0 0 0 hln 100 PKGREF=R47
a 0 ap 9 0 15 0 hln 100 REFDES=R47
part 741 R 1580 600 h
a 0 u 13 0 15 25 hln 100 VALUE=9k
a 0 sp 0 0 0 10 hlb 100 PART=R
a 0 s 0:13 0 0 0 hln 100 PKGTYPE=RC05
a 0 s 0:13 0 0 0 hln 100 GATE=
a 0 a 0:13 0 0 0 hln 100 PKGREF=R48
a 0 ap 9 0 15 0 hln 100 REFDES=R48
part 743 R 1400 660 h
a 0 u 13 0 15 25 hln 100 VALUE=1k
a 0 sp 0 0 0 10 hlb 100 PART=R
a 0 s 0:13 0 0 0 hln 100 PKGTYPE=RC05
a 0 s 0:13 0 0 0 hln 100 GATE=
a 0 a 0:13 0 0 0 hln 100 PKGREF=R50
a 0 ap 9 0 15 0 hln 100 REFDES=R50
part 745 R 1370 730 v
a 0 u 13 0 15 1 hln 100 VALUE=9k
a 0 sp 0 0 0 10 hlb 100 PART=R
a 0 s 0:13 0 0 0 hln 100 PKGTYPE=RC05
a 0 s 0:13 0 0 0 hln 100 GATE=
a 0 a 0:13 0 0 0 hln 100 PKGREF=R52
a 0 ap 9 0 17 42 hln 100 REFDES=R52
part 295 OPAMP 280 410 U
a 0 u 0:13 0 20 82 hlb 100 VPOS=+150V
a 0 u 0:13 0 20 91 hlb 100 VNEG=-150V
a 0 sp 11 0 50 60 hln 100 PART=OPAMP
a 0 s 0:13 0 0 0 hln 100 PKGTYPE=
a 0 a 0:13 0 0 0 hln 100 PKGREF=U7
a 0 ap 9 0 14 0 hln 100 REFDES=U7
part 441 OPAMP 400 740 U
a 0 u 0:13 0 20 82 hlb 100 VPOS=+150V
a 0 u 0:13 0 20 91 hlb 100 VNEG=-150V
a 0 sp 11 0 50 60 hln 100 PART=OPAMP
a 0 s 0:13 0 0 0 hln 100 PKGTYPE=
a 0 a 0:13 0 0 0 hln 100 PKGREF=U11
a 0 ap 9 0 14 0 hln 100 REFDES=U11
part 737 OPAMP 1560 670 U
a 0 u 0:13 0 20 82 hlb 100 VPOS=+150V
a 0 u 0:13 0 20 91 hlb 100 VNEG=-150V
a 0 sp 11 0 50 60 hln 100 PART=OPAMP
a 0 s 0:13 0 0 0 hln 100 PKGTYPE=
a 0 a 0:13 0 0 0 hln 100 PKGREF=U20
a 0 ap 9 0 14 0 hln 100 REFDES=U20
part 676 R 770 660 h
a 0 u 13 0 15 25 hln 100 VALUE=9k
a 0 sp 0 0 0 10 hlb 100 PART=R
a 0 s 0:13 0 0 0 hln 100 PKGTYPE=RC05
a 0 s 0:13 0 0 0 hln 100 GATE=
a 0 a 0:13 0 0 0 hln 100 PKGREF=R41
a 0 ap 9 0 15 0 hln 100 REFDES=R41
a 0 u 13 0 16 38 hlb 100 TOLERANCE=1%
part 679 R 740 730 v
a 0 u 13 0 15 1 hln 100 VALUE=2k
a 0 sp 0 0 0 10 hlb 100 PART=R
a 0 s 0:13 0 0 0 hln 100 PKGTYPE=RC05
a 0 s 0:13 0 0 0 hln 100 GATE=
a 0 a 0:13 0 0 0 hln 100 PKGREF=R42
a 0 ap 9 0 17 42 hln 100 REFDES=R42
a 0 u 13 0 16 38 hlb 100 TOLERANCE=1%
part 682 R 770 760 U
a 0 u 13 0 17 25 hln 100 VALUE=9k
a 0 sp 0 0 0 10 hlb 100 PART=R
a 0 s 0:13 0 0 0 hln 100 PKGTYPE=RC05
a 0 s 0:13 0 0 0 hln 100 GATE=
a 0 a 0:13 0 0 0 hln 100 PKGREF=R45
a 0 ap 9 0 15 0 hln 100 REFDES=R45
a 0 u 13 0 16 38 hlb 100 TOLERANCE=1%
part 675 R 990 660 h
a 0 sp 0 0 0 10 hlb 100 PART=R
a 0 s 0:13 0 0 0 hln 100 PKGTYPE=RC05
a 0 s 0:13 0 0 0 hln 100 GATE=
a 0 a 0:13 0 0 0 hln 100 PKGREF=R40
a 0 ap 9 0 15 0 hln 100 REFDES=R40
a 0 u 13 0 16 38 hlb 100 TOLERANCE=1%
part 674 R 990 730 h
a 0 sp 0 0 0 10 hlb 100 PART=R
a 0 s 0:13 0 0 0 hln 100 PKGTYPE=RC05
a 0 s 0:13 0 0 0 hln 100 GATE=
a 0 a 0:13 0 0 0 hln 100 PKGREF=R39
a 0 ap 9 0 15 0 hln 100 REFDES=R39
a 0 u 13 0 16 38 hlb 100 TOLERANCE=1%
part 681 R 1030 780 v
a 0 sp 0 0 0 10 hlb 100 PART=R
a 0 s 0:13 0 0 0 hln 100 PKGTYPE=RC05
a 0 s 0:13 0 0 0 hln 100 GATE=
a 0 u 13 0 15 33 hln 100 VALUE=1k
a 0 a 0:13 0 0 0 hln 100 PKGREF=R44
a 0 ap 9 0 15 0 hln 100 REFDES=R44
a 0 u 13 0 16 38 hlb 100 TOLERANCE=1%
part 680 R 1060 660 h
a 0 sp 0 0 0 10 hlb 100 PART=R
a 0 s 0:13 0 0 0 hln 100 PKGTYPE=RC05
a 0 s 0:13 0 0 0 hln 100 GATE=
a 0 u 13 0 15 25 hln 100 VALUE=1k
a 0 a 0:13 0 0 0 hln 100 PKGREF=R43
a 0 ap 9 0 15 0 hln 100 REFDES=R43
a 0 u 13 0 16 38 hlb 100 TOLERANCE=1%
part 806 PARAM 140 1260 h
a 0 u 13 0 0 20 hln 100 NAME1=dR
a 0 u 13 0 50 22 hlb 100 VALUE1=0
a 0 a 0:13 0 0 0 hln 100 PKGREF=PM1
a 1 ap 0 0 10 -2 hcn 100 REFDES=PM1
part 775 R 360 1380 v
a 0 u 13 0 13 55 hln 100 VALUE={1k+dR}
a 0 sp 0 0 0 10 hlb 100 PART=R
a 0 s 0:13 0 0 0 hln 100 PKGTYPE=RC05
a 0 s 0:13 0 0 0 hln 100 GATE=
a 0 a 0:13 0 0 0 hln 100 PKGREF=R53
a 0 ap 9 0 15 0 hln 100 REFDES=R53
part 776 R 360 1550 v
a 0 u 13 0 17 59 hln 100 VALUE={1k-dR}
a 0 sp 0 0 0 10 hlb 100 PART=R
a 0 s 0:13 0 0 0 hln 100 PKGTYPE=RC05
a 0 s 0:13 0 0 0 hln 100 GATE=
a 0 a 0:13 0 0 0 hln 100 PKGREF=R54
a 0 ap 9 0 15 0 hln 100 REFDES=R54
part 795 VDC 260 1400 h
a 1 u 13 0 -11 18 hcn 100 DC=5V
a 0 sp 0 0 22 37 hln 100 PART=VDC
a 0 a 0:13 0 0 0 hln 100 PKGREF=V5
a 1 ap 9 0 24 7 hcn 100 REFDES=V5
part 880 R 910 1480 h
a 0 sp 0 0 0 10 hlb 100 PART=R
a 0 s 0:13 0 0 0 hln 100 PKGTYPE=RC05
a 0 s 0:13 0 0 0 hln 100 GATE=
a 0 a 0:13 0 0 0 hln 100 PKGREF=R57
a 0 ap 9 0 15 0 hln 100 REFDES=R57
part 881 R 910 1410 h
a 0 sp 0 0 0 10 hlb 100 PART=R
a 0 s 0:13 0 0 0 hln 100 PKGTYPE=RC05
a 0 s 0:13 0 0 0 hln 100 GATE=
a 0 a 0:13 0 0 0 hln 100 PKGREF=R58
a 0 ap 9 0 15 0 hln 100 REFDES=R58
part 884 R 980 1410 h
a 0 sp 0 0 0 10 hlb 100 PART=R
a 0 s 0:13 0 0 0 hln 100 PKGTYPE=RC05
a 0 s 0:13 0 0 0 hln 100 GATE=
a 0 u 13 0 15 25 hln 100 VALUE=1k
a 0 a 0:13 0 0 0 hln 100 PKGREF=R59
a 0 ap 9 0 15 0 hln 100 REFDES=R59
part 888 R 660 1480 v
a 0 u 13 0 15 1 hln 100 VALUE=2k
a 0 sp 0 0 0 10 hlb 100 PART=R
a 0 s 0:13 0 0 0 hln 100 PKGTYPE=RC05
a 0 s 0:13 0 0 0 hln 100 GATE=
a 0 a 0:13 0 0 0 hln 100 PKGREF=R63
a 0 ap 9 0 17 42 hln 100 REFDES=R63
part 883 OPAMP 670 1330 h
a 0 u 0:13 0 20 82 hlb 100 VPOS=+150V
a 0 u 0:13 0 20 91 hlb 100 VNEG=-150V
a 0 sp 11 0 50 60 hln 100 PART=OPAMP
a 0 s 0:13 0 0 0 hln 100 PKGTYPE=
a 0 a 0:13 0 0 0 hln 100 PKGREF=U23
a 0 ap 9 0 14 0 hln 100 REFDES=U23
part 882 OPAMP 670 1590 U
a 0 u 0:13 0 20 82 hlb 100 VPOS=+150V
a 0 u 0:13 0 20 91 hlb 100 VNEG=-150V
a 0 sp 11 0 50 60 hln 100 PART=OPAMP
a 0 s 0:13 0 0 0 hln 100 PKGTYPE=
a 0 a 0:13 0 0 0 hln 100 PKGREF=U22
a 0 ap 9 0 14 0 hln 100 REFDES=U22
part 777 R 460 1380 v
a 0 u 13 0 13 53 hln 100 VALUE={1k-dR}
a 0 sp 0 0 0 10 hlb 100 PART=R
a 0 s 0:13 0 0 0 hln 100 PKGTYPE=RC05
a 0 s 0:13 0 0 0 hln 100 GATE=
a 0 a 0:13 0 0 0 hln 100 PKGREF=R55
a 0 ap 9 0 15 0 hln 100 REFDES=R55
part 778 R 460 1550 v
a 0 u 13 0 15 55 hln 100 VALUE={1k+dR}
a 0 sp 0 0 0 10 hlb 100 PART=R
a 0 s 0:13 0 0 0 hln 100 PKGTYPE=RC05
a 0 s 0:13 0 0 0 hln 100 GATE=
a 0 a 0:13 0 0 0 hln 100 PKGREF=R56
a 0 ap 9 0 15 0 hln 100 REFDES=R56
part 885 R 950 1530 v
a 0 sp 0 0 0 10 hlb 100 PART=R
a 0 s 0:13 0 0 0 hln 100 PKGTYPE=RC05
a 0 s 0:13 0 0 0 hln 100 GATE=
a 0 u 13 0 15 33 hln 100 VALUE=1k
a 0 a 0:13 0 0 0 hln 100 PKGREF=R60
a 0 ap 9 0 15 0 hln 100 REFDES=R60
part 931 OPAMP 870 1690 U
a 0 u 0:13 0 20 82 hlb 100 VPOS=+150V
a 0 u 0:13 0 20 91 hlb 100 VNEG=-150V
a 0 sp 11 0 50 60 hln 100 PART=OPAMP
a 0 s 0:13 0 0 0 hln 100 PKGTYPE=
a 0 a 0:13 0 0 0 hln 100 PKGREF=U25
a 0 ap 9 0 14 0 hln 100 REFDES=U25
part 928 R 820 1690 h
a 0 u 13 0 15 25 hln 100 VALUE=4.75k
a 0 sp 0 0 0 10 hlb 100 PART=R
a 0 s 0:13 0 0 0 hln 100 PKGTYPE=RC05
a 0 s 0:13 0 0 0 hln 100 GATE=
a 0 a 0:13 0 0 0 hln 100 PKGREF=R64
a 0 ap 9 0 15 0 hln 100 REFDES=R64
part 932 R 860 1740 v
a 0 u 13 0 15 33 hln 100 VALUE=0.25k
a 0 sp 0 0 0 10 hlb 100 PART=R
a 0 s 0:13 0 0 0 hln 100 PKGTYPE=RC05
a 0 s 0:13 0 0 0 hln 100 GATE=
a 0 a 0:13 0 0 0 hln 100 PKGREF=R67
a 0 ap 9 0 15 0 hln 100 REFDES=R67
part 886 R 690 1410 h
a 0 u 13 0 15 25 hln 100 VALUE=46.5k
a 0 sp 0 0 0 10 hlb 100 PART=R
a 0 s 0:13 0 0 0 hln 100 PKGTYPE=RC05
a 0 s 0:13 0 0 0 hln 100 GATE=
a 0 a 0:13 0 0 0 hln 100 PKGREF=R61
a 0 ap 9 0 15 0 hln 100 REFDES=R61
part 887 R 690 1510 U
a 0 u 13 0 17 25 hln 100 VALUE=46.5k
a 0 sp 0 0 0 10 hlb 100 PART=R
a 0 s 0:13 0 0 0 hln 100 PKGTYPE=RC05
a 0 s 0:13 0 0 0 hln 100 GATE=
a 0 a 0:13 0 0 0 hln 100 PKGREF=R62
a 0 ap 9 0 15 0 hln 100 REFDES=R62
part 1078 VDC 1160 1430 h
a 1 u 13 0 -11 18 hcn 100 DC=5V
a 0 sp 0 0 22 37 hln 100 PART=VDC
a 0 a 0:13 0 0 0 hln 100 PKGREF=V6
a 1 ap 9 0 24 7 hcn 100 REFDES=V6
part 1118 OPAMP 1540 1400 h
a 0 u 0:13 0 20 82 hlb 100 VPOS=+150V
a 0 u 0:13 0 20 91 hlb 100 VNEG=-150V
a 0 sp 11 0 50 60 hln 100 PART=OPAMP
a 0 s 0:13 0 0 0 hln 100 PKGTYPE=
a 0 a 0:13 0 0 0 hln 100 PKGREF=U26
a 0 ap 9 0 14 0 hln 100 REFDES=U26
part 1119 R 1670 1420 h
a 0 sp 0 0 0 10 hlb 100 PART=R
a 0 s 0:13 0 0 0 hln 100 PKGTYPE=RC05
a 0 s 0:13 0 0 0 hln 100 GATE=
a 0 a 0:13 0 0 0 hln 100 PKGREF=R72
a 0 ap 9 0 15 0 hln 100 REFDES=R72
part 1121 R 1560 1480 h
a 0 u 13 0 15 25 hln 100 VALUE=1k
a 0 sp 0 0 0 10 hlb 100 PART=R
a 0 s 0:13 0 0 0 hln 100 PKGTYPE=RC05
a 0 s 0:13 0 0 0 hln 100 GATE=
a 0 a 0:13 0 0 0 hln 100 PKGREF=R74
a 0 ap 9 0 15 0 hln 100 REFDES=R74
part 1076 R 1260 1410 v
a 0 u 13 0 13 55 hln 100 VALUE={1k+dR}
a 0 sp 0 0 0 10 hlb 100 PART=R
a 0 s 0:13 0 0 0 hln 100 PKGTYPE=RC05
a 0 s 0:13 0 0 0 hln 100 GATE=
a 0 a 0:13 0 0 0 hln 100 PKGREF=R68
a 0 ap 9 0 15 0 hln 100 REFDES=R68
part 1077 R 1260 1580 v
a 0 u 13 0 17 59 hln 100 VALUE={1k-dR}
a 0 sp 0 0 0 10 hlb 100 PART=R
a 0 s 0:13 0 0 0 hln 100 PKGTYPE=RC05
a 0 s 0:13 0 0 0 hln 100 GATE=
a 0 a 0:13 0 0 0 hln 100 PKGREF=R69
a 0 ap 9 0 15 0 hln 100 REFDES=R69
part 1079 R 1360 1410 v
a 0 u 13 0 13 53 hln 100 VALUE={1k-dR}
a 0 sp 0 0 0 10 hlb 100 PART=R
a 0 s 0:13 0 0 0 hln 100 PKGTYPE=RC05
a 0 s 0:13 0 0 0 hln 100 GATE=
a 0 a 0:13 0 0 0 hln 100 PKGREF=R70
a 0 ap 9 0 15 0 hln 100 REFDES=R70
part 1080 R 1360 1580 v
a 0 u 13 0 15 55 hln 100 VALUE={1k+dR}
a 0 sp 0 0 0 10 hlb 100 PART=R
a 0 s 0:13 0 0 0 hln 100 PKGTYPE=RC05
a 0 s 0:13 0 0 0 hln 100 GATE=
a 0 a 0:13 0 0 0 hln 100 PKGREF=R71
a 0 ap 9 0 15 0 hln 100 REFDES=R71
part 1120 R 1740 1420 h
a 0 u 13 0 15 25 hln 100 VALUE=46.5k
a 0 sp 0 0 0 10 hlb 100 PART=R
a 0 s 0:13 0 0 0 hln 100 PKGTYPE=RC05
a 0 s 0:13 0 0 0 hln 100 GATE=
a 0 a 0:13 0 0 0 hln 100 PKGREF=R73
a 0 ap 9 0 15 0 hln 100 REFDES=R73
part 889 OPAMP 960 1480 U
a 0 u 0:13 0 20 82 hlb 100 VPOS=+150V
a 0 u 0:13 0 20 91 hlb 100 VNEG=-150V
a 0 sp 11 0 50 60 hln 100 PART=OPAMP
a 0 s 0:13 0 0 0 hln 100 PKGTYPE=
a 0 a 0:13 0 0 0 hln 100 PKGREF=U24
a 0 ap 9 0 14 0 hln 100 REFDES=U24
part 1163 OPAMP 1610 1600 u
a 0 u 0:13 0 20 82 hlb 100 VPOS=+150V
a 0 u 0:13 0 20 91 hlb 100 VNEG=-150V
a 0 sp 11 0 50 60 hln 100 PART=OPAMP
a 0 s 0:13 0 0 0 hln 100 PKGTYPE=
a 0 a 0:13 0 0 0 hln 100 PKGREF=U28
a 0 ap 9 0 14 0 hln 100 REFDES=U28
part 1164 R 1660 1600 H
a 0 u 13 0 15 25 hln 100 VALUE=4.75k
a 0 sp 0 0 0 10 hlb 100 PART=R
a 0 s 0:13 0 0 0 hln 100 PKGTYPE=RC05
a 0 s 0:13 0 0 0 hln 100 GATE=
a 0 a 0:13 0 0 0 hln 100 PKGREF=R76
a 0 ap 9 0 15 0 hln 100 REFDES=R76
part 1165 R 1620 1650 V
a 0 u 13 0 15 33 hln 100 VALUE=0.25k
a 0 sp 0 0 0 10 hlb 100 PART=R
a 0 s 0:13 0 0 0 hln 100 PKGTYPE=RC05
a 0 s 0:13 0 0 0 hln 100 GATE=
a 0 a 0:13 0 0 0 hln 100 PKGREF=R77
a 0 ap 9 0 15 0 hln 100 REFDES=R77
part 1122 R 1530 1530 v
a 0 u 13 0 15 1 hln 100 VALUE=46.5k
a 0 sp 0 0 0 10 hlb 100 PART=R
a 0 s 0:13 0 0 0 hln 100 PKGTYPE=RC05
a 0 s 0:13 0 0 0 hln 100 GATE=
a 0 a 0:13 0 0 0 hln 100 PKGREF=R75
a 0 ap 9 0 17 42 hln 100 REFDES=R75
part 1247 VDC 400 1930 h
a 1 u 13 0 -11 18 hcn 100 DC=1V
a 0 sp 0 0 22 37 hln 100 PART=VDC
a 0 a 0:13 0 0 0 hln 100 PKGREF=V8
a 1 ap 9 0 24 7 hcn 100 REFDES=V8
part 1123 OPAMP 1720 1490 U
a 0 u 0:13 0 20 82 hlb 100 VPOS=+150V
a 0 u 0:13 0 20 91 hlb 100 VNEG=-150V
a 0 sp 11 0 50 60 hln 100 PART=OPAMP
a 0 s 0:13 0 0 0 hln 100 PKGTYPE=
a 0 a 0:13 0 0 0 hln 100 PKGREF=U27
a 0 ap 9 0 14 0 hln 100 REFDES=U27
part 1227 R 460 1850 h
a 0 sp 0 0 0 10 hlb 100 PART=R
a 0 s 0:13 0 0 0 hln 100 PKGTYPE=RC05
a 0 s 0:13 0 0 0 hln 100 GATE=
a 0 a 0:13 0 0 0 hln 100 PKGREF=R83
a 0 ap 9 0 15 0 hln 100 REFDES=R83
a 0 u 13 0 28 -4 hlb 100 TOLERANCE=0.1%
part 1224 R 530 1850 h
a 0 u 13 0 15 25 hln 100 VALUE=10k
a 0 sp 0 0 0 10 hlb 100 PART=R
a 0 s 0:13 0 0 0 hln 100 PKGTYPE=RC05
a 0 s 0:13 0 0 0 hln 100 GATE=
a 0 a 0:13 0 0 0 hln 100 PKGREF=R80
a 0 ap 9 0 15 0 hln 100 REFDES=R80
a 0 u 13 0 32 28 hlb 100 TOLERANCE=0.1%
part 1226 R 460 1920 h
a 0 sp 0 0 0 10 hlb 100 PART=R
a 0 s 0:13 0 0 0 hln 100 PKGTYPE=RC05
a 0 s 0:13 0 0 0 hln 100 GATE=
a 0 a 0:13 0 0 0 hln 100 PKGREF=R82
a 0 ap 9 0 15 0 hln 100 REFDES=R82
a 0 u 13 0 -4 36 hlb 100 TOLERANCE=0.1%
part 1225 R 500 1970 v
a 0 sp 0 0 0 10 hlb 100 PART=R
a 0 s 0:13 0 0 0 hln 100 PKGTYPE=RC05
a 0 s 0:13 0 0 0 hln 100 GATE=
a 0 u 13 0 15 33 hln 100 VALUE=10k
a 0 a 0:13 0 0 0 hln 100 PKGREF=R81
a 0 ap 9 0 15 0 hln 100 REFDES=R81
a 0 u 13 0 4 34 hlb 100 TOLERANCE=0.1%
part 1228 OPAMP 510 1920 U
a 0 u 0:13 0 20 82 hlb 100 VPOS=+150V
a 0 u 0:13 0 20 91 hlb 100 VNEG=-150V
a 0 sp 11 0 50 60 hln 100 PART=OPAMP
a 0 s 0:13 0 0 0 hln 100 PKGTYPE=
a 0 a 0:13 0 0 0 hln 100 PKGREF=U30
a 0 ap 9 0 14 0 hln 100 REFDES=U30
part 1414 R 980 1000 h
a 0 sp 0 0 0 10 hlb 100 PART=R
a 0 s 0:13 0 0 0 hln 100 PKGTYPE=RC05
a 0 s 0:13 0 0 0 hln 100 GATE=
a 0 u 13 0 16 38 hlb 100 TOLERANCE=1%
a 0 a 0:13 0 0 0 hln 100 PKGREF=R87
a 0 ap 9 0 15 0 hln 100 REFDES=R87
part 1415 R 980 1070 h
a 0 sp 0 0 0 10 hlb 100 PART=R
a 0 s 0:13 0 0 0 hln 100 PKGTYPE=RC05
a 0 s 0:13 0 0 0 hln 100 GATE=
a 0 u 13 0 16 38 hlb 100 TOLERANCE=1%
a 0 a 0:13 0 0 0 hln 100 PKGREF=R88
a 0 ap 9 0 15 0 hln 100 REFDES=R88
part 1409 OPAMP 740 1260 U
a 0 u 0:13 0 20 82 hlb 100 VPOS=+150V
a 0 u 0:13 0 20 91 hlb 100 VNEG=-150V
a 0 sp 11 0 50 60 hln 100 PART=OPAMP
a 0 s 0:13 0 0 0 hln 100 PKGTYPE=
a 0 a 0:13 0 0 0 hln 100 PKGREF=U31
a 0 ap 9 0 14 0 hln 100 REFDES=U31
part 1410 OPAMP 740 920 h
a 0 u 0:13 0 20 82 hlb 100 VPOS=+150V
a 0 u 0:13 0 20 91 hlb 100 VNEG=-150V
a 0 sp 11 0 50 60 hln 100 PART=OPAMP
a 0 s 0:13 0 0 0 hln 100 PKGTYPE=
a 0 a 0:13 0 0 0 hln 100 PKGREF=U32
a 0 ap 9 0 14 0 hln 100 REFDES=U32
part 1412 R 730 1070 v
a 0 sp 0 0 0 10 hlb 100 PART=R
a 0 s 0:13 0 0 0 hln 100 PKGTYPE=RC05
a 0 s 0:13 0 0 0 hln 100 GATE=
a 0 u 13 0 16 38 hlb 100 TOLERANCE=1%
a 0 a 0:13 0 0 0 hln 100 PKGREF=R85
a 0 ap 9 0 17 42 hln 100 REFDES=R85
a 0 u 13 0 15 1 hln 100 VALUE=1k
part 1417 R 1050 1000 h
a 0 sp 0 0 0 10 hlb 100 PART=R
a 0 s 0:13 0 0 0 hln 100 PKGTYPE=RC05
a 0 s 0:13 0 0 0 hln 100 GATE=
a 0 u 13 0 16 38 hlb 100 TOLERANCE=1%
a 0 a 0:13 0 0 0 hln 100 PKGREF=R90
a 0 ap 9 0 15 0 hln 100 REFDES=R90
a 0 u 13 0 15 25 hln 100 VALUE=5k
part 1416 R 1020 1120 v
a 0 sp 0 0 0 10 hlb 100 PART=R
a 0 s 0:13 0 0 0 hln 100 PKGTYPE=RC05
a 0 s 0:13 0 0 0 hln 100 GATE=
a 0 u 13 0 16 38 hlb 100 TOLERANCE=1%
a 0 a 0:13 0 0 0 hln 100 PKGREF=R89
a 0 ap 9 0 15 0 hln 100 REFDES=R89
a 0 u 13 0 15 33 hln 100 VALUE=5k
part 1413 R 760 1180 U
a 0 sp 0 0 0 10 hlb 100 PART=R
a 0 s 0:13 0 0 0 hln 100 PKGTYPE=RC05
a 0 s 0:13 0 0 0 hln 100 GATE=
a 0 u 13 0 16 38 hlb 100 TOLERANCE=1%
a 0 a 0:13 0 0 0 hln 100 PKGREF=R86
a 0 ap 9 0 15 0 hln 100 REFDES=R86
a 0 u 13 0 17 25 hln 100 VALUE=1k
part 1411 R 760 1000 h
a 0 sp 0 0 0 10 hlb 100 PART=R
a 0 s 0:13 0 0 0 hln 100 PKGTYPE=RC05
a 0 s 0:13 0 0 0 hln 100 GATE=
a 0 u 13 0 16 38 hlb 100 TOLERANCE=1%
a 0 a 0:13 0 0 0 hln 100 PKGREF=R84
a 0 ap 9 0 15 0 hln 100 REFDES=R84
a 0 u 13 0 15 25 hln 100 VALUE=1k
part 673 OPAMP 1040 730 U
a 0 u 0:13 0 20 82 hlb 100 VPOS=+150V
a 0 u 0:13 0 20 91 hlb 100 VNEG=-150V
a 0 sp 11 0 50 60 hln 100 PART=OPAMP
a 0 s 0:13 0 0 0 hln 100 PKGTYPE=
a 0 a 0:13 0 0 0 hln 100 PKGREF=U17
a 0 ap 9 0 14 0 hln 100 REFDES=U17
part 1444 R 730 1160 v
a 0 sp 0 0 0 10 hlb 100 PART=R
a 0 s 0:13 0 0 0 hln 100 PKGTYPE=RC05
a 0 s 0:13 0 0 0 hln 100 GATE=
a 0 u 13 0 16 38 hlb 100 TOLERANCE=1%
a 0 a 0:13 0 0 0 hln 100 PKGREF=R91
a 0 ap 9 0 17 42 hln 100 REFDES=R91
a 0 u 13 0 15 1 hln 100 VALUE=1k
part 1485 OPAMP 1150 1790 h
a 0 u 0:13 0 20 82 hlb 100 VPOS=+150V
a 0 u 0:13 0 20 91 hlb 100 VNEG=-150V
a 0 sp 11 0 50 60 hln 100 PART=OPAMP
a 0 s 0:13 0 0 0 hln 100 PKGTYPE=
a 0 a 0:13 0 0 0 hln 100 PKGREF=U34
a 0 ap 9 0 14 0 hln 100 REFDES=U34
part 1490 OPAMP 1330 1880 U
a 0 u 0:13 0 20 82 hlb 100 VPOS=+150V
a 0 u 0:13 0 20 91 hlb 100 VNEG=-150V
a 0 sp 11 0 50 60 hln 100 PART=OPAMP
a 0 s 0:13 0 0 0 hln 100 PKGTYPE=
a 0 a 0:13 0 0 0 hln 100 PKGREF=U35
a 0 ap 9 0 14 0 hln 100 REFDES=U35
part 1488 R 1170 1870 h
a 0 u 13 0 15 25 hln 100 VALUE=1k
a 0 sp 0 0 0 10 hlb 100 PART=R
a 0 s 0:13 0 0 0 hln 100 PKGTYPE=RC05
a 0 s 0:13 0 0 0 hln 100 GATE=
a 0 a 0:13 0 0 0 hln 100 PKGREF=R94
a 0 ap 9 0 15 0 hln 100 REFDES=R94
a 0 u 13 0 16 38 hlb 100 TOLERANCE=1%
part 1489 R 1140 1940 v
a 0 u 13 0 15 1 hln 100 VALUE=9k
a 0 sp 0 0 0 10 hlb 100 PART=R
a 0 s 0:13 0 0 0 hln 100 PKGTYPE=RC05
a 0 s 0:13 0 0 0 hln 100 GATE=
a 0 a 0:13 0 0 0 hln 100 PKGREF=R95
a 0 ap 9 0 17 42 hln 100 REFDES=R95
a 0 u 13 0 16 38 hlb 100 TOLERANCE=1%
part 1486 R 1280 1810 h
a 0 sp 0 0 0 10 hlb 100 PART=R
a 0 s 0:13 0 0 0 hln 100 PKGTYPE=RC05
a 0 s 0:13 0 0 0 hln 100 GATE=
a 0 a 0:13 0 0 0 hln 100 PKGREF=R92
a 0 ap 9 0 15 0 hln 100 REFDES=R92
a 0 u 13 0 16 38 hlb 100 TOLERANCE=1%
part 1487 R 1350 1810 h
a 0 u 13 0 15 25 hln 100 VALUE=9k
a 0 sp 0 0 0 10 hlb 100 PART=R
a 0 s 0:13 0 0 0 hln 100 PKGTYPE=RC05
a 0 s 0:13 0 0 0 hln 100 GATE=
a 0 a 0:13 0 0 0 hln 100 PKGREF=R93
a 0 ap 9 0 15 0 hln 100 REFDES=R93
a 0 u 13 0 16 38 hlb 100 TOLERANCE=1%
part 1418 OPAMP 1030 1070 U
a 0 u 0:13 0 20 82 hlb 100 VPOS=+150V
a 0 u 0:13 0 20 91 hlb 100 VNEG=-150V
a 0 sp 11 0 50 60 hln 100 PART=OPAMP
a 0 s 0:13 0 0 0 hln 100 PKGTYPE=
a 0 a 0:13 0 0 0 hln 100 PKGREF=U33
a 0 ap 9 0 14 0 hln 100 REFDES=U33
part 1 titleblk 3220 2020 h
a 1 s 13 0 180 60 hcn 100 PAGETITLE=
a 1 s 13 0 300 95 hrn 100 PAGENO=1
a 1 s 13 0 340 95 hrn 100 PAGECOUNT=1
a 1 s 13 0 350 10 hcn 100 PAGESIZE=D
part 1494 nodeMarker 1410 1830 h
a 0 s 0 0 0 0 hln 100 PROBEVAR=
a 0 a 0 0 4 22 hlb 100 LABEL=11
@conn
w 25
a 0 up 0:33 0 0 0 hln 100 V=
s 40 50 40 40 24
a 0 up 33 0 42 45 hlt 100 V=
w 23
a 0 up 0:33 0 0 0 hln 100 V=
s 40 160 40 150 22